 ****** HSPICE -- L-2016.06-SP1 win64 (Aug 24 2016) ******                      
  Copyright (c) 1986 - 2020 by Synopsys, Inc. All Rights Reserved.              
  This software and the associated documentation are proprietary
  to Synopsys, Inc. This software may only be used in accordance
  with the terms and conditions of a written license agreement with
  Synopsys, Inc. All other use, reproduction, or distribution of
  this software is strictly prohibited.
  Input File: INV.sp                                                            
  Command line options: C:\synopsys\Hspice_L-2016.06-SP1\WIN64\hspice.com -i INV.sp -o D:\Eduction\Master\Course\VLSI\Exercise\inv 180\INV.lis
  lic:  
  lic: FLEXlm: v11.2.1 
  lic: USER:   Morteza              HOSTNAME: DESKTOP-AG68BOS 
  lic: HOSTID: "d0df9a952afd"       PID:      6768 
  lic: Using FLEXlm license file: 
  lic: 27000@DESKTOP-AG68BOS 
  lic: Checkout 1 hspice 
  lic: License/Maintenance for hspice will expire on 30-dec-2020/2019.2019 
  lic: 1(in_use)/99(total) FLOATING license(s) on SERVER 27000@DESKTOP-AG68BOS 
  lic:   
  **error** (INV.sp:3) unable to open file "D:\lerning\Guilan University\VLSI\Exercise\inv 180\mosistsmc180.lib" .Either file doesn't exists or path is wrong. Please enter the correct file location. 

               ***** job aborted
  lic: Release hspice token(s) 
 lic: total license checkout elapse time:        0.18(s)
